Test_Network/condensed/network_18/Feeder_5/Lines.txt
New Line.LINE34 Bus1=34 Bus2=35 phases=3 Linecode=2c_.0225_UA Length=8.968 Units=m
New Line.LINE37 Bus1=35 Bus2=38 phases=3 Linecode=2c_.0225_UA Length=4.7436 Units=m
New Line.LINE59 Bus1=58 Bus2=60 phases=3 Linecode=4c_.2 Length=22.1629 Units=m
New Line.LINE81 Bus1=77 Bus2=82 phases=3 Linecode=2c_.0225_UA Length=13.253 Units=m
New Line.LINE88 Bus1=82 Bus2=89 phases=3 Linecode=2c_.0225_UA Length=3.2941 Units=m
New Line.LINE96 Bus1=89 Bus2=97 phases=3 Linecode=2c_.0225_UA Length=3.4725 Units=m
New Line.LINE103 Bus1=95 Bus2=104 phases=3 Linecode=25_SAC_PSC Length=3.7166 Units=m
New Line.LINE127 Bus1=124 Bus2=128 phases=3 Linecode=4c_.2 Length=0.78552 Units=m
New Line.LINE161 Bus1=155 Bus2=162 phases=3 Linecode=2c_.0225 Length=2.2551 Units=m
New Line.LINE220 Bus1=209 Bus2=221 phases=3 Linecode=2c_.0225_UA Length=3.9482 Units=m
New Line.LINE231 Bus1=219 Bus2=232 phases=3 Linecode=2c_.0225_UA Length=3.0119 Units=m
New Line.LINE301 Bus1=288 Bus2=302 phases=3 Linecode=4c_.2 Length=0.72046 Units=m
New Line.LINE352 Bus1=337 Bus2=353 phases=3 Linecode=2c_.0225 Length=2.0294 Units=m
New Line.LINE415 Bus1=399 Bus2=416 phases=3 Linecode=2c_.0225 Length=0.62678 Units=m
New Line.LINE470 Bus1=453 Bus2=471 phases=3 Linecode=2c_.0225 Length=0.76655 Units=m
New Line.LINE494 Bus1=477 Bus2=495 phases=3 Linecode=2c_.0225_UA Length=2.0474 Units=m
New Line.LINE496 Bus1=478 Bus2=497 phases=3 Linecode=2c_.0225_UA Length=3.6083 Units=m
New Line.LINE498 Bus1=480 Bus2=499 phases=3 Linecode=4c_.2 Length=0.60456 Units=m
New Line.LINE517 Bus1=499 Bus2=518 phases=3 Linecode=4c_.2 Length=29.2193 Units=m
New Line.LINE537 Bus1=518 Bus2=538 phases=3 Linecode=.0225_UA Length=12.8563 Units=m
New Line.LINE546 Bus1=527 Bus2=547 phases=3 Linecode=4c_.05_UA Length=1.1824 Units=m
New Line.LINE558 Bus1=538 Bus2=559 phases=3 Linecode=2c_.0225_UA Length=1.8019 Units=m
New Line.LINE580 Bus1=559 Bus2=581 phases=3 Linecode=2c_.0225_UA Length=3.9857 Units=m
New Line.LINE601 Bus1=579 Bus2=602 phases=3 Linecode=2c_.0225_UA Length=4.3144 Units=m
New Line.LINE609 Bus1=587 Bus2=610 phases=3 Linecode=2c_.0225 Length=1.3096 Units=m
New Line.LINE772 Bus1=760 Bus2=773 phases=3 Linecode=25_SAC_PSC Length=1.2876 Units=m
New Line.LINE818 Bus1=808 Bus2=819 phases=3 Linecode=2c_.0225 Length=1.9611 Units=m
New Line.LINE835 Bus1=827 Bus2=836 phases=3 Linecode=2c_.0225_UA Length=3.0942 Units=m
New Line.LINE836 Bus1=827 Bus2=837 phases=3 Linecode=2c_.0225 Length=2.535 Units=m
New Line.LINE846 Bus1=836 Bus2=847 phases=3 Linecode=3c_.03_UA Length=3.3887 Units=m
New Line.LINE848 Bus1=837 Bus2=849 phases=3 Linecode=3c_.03_UA Length=2.3848 Units=m
New Line.LINE853 Bus1=842 Bus2=854 phases=3 Linecode=2c_.0225_UA Length=1.9225 Units=m
New Line.LINE863 Bus1=855 Bus2=864 phases=3 Linecode=2c_.0225_UA Length=1.7921 Units=m
New Line.LINE893 Bus1=886 Bus2=894 phases=3 Linecode=2c_.0225 Length=1.6871 Units=m
New Line.LINECmpd_0 Bus1=886 Bus2=983 phases=3 Linecode=2c_.0225 Length=9.493104 Units=m
New Line.LINECmpd_1 Bus1=1 Bus2=34 phases=3 Linecode=4c_.2 Length=26.135663 Units=m
New Line.LINECmpd_2 Bus1=808 Bus2=936 phases=3 Linecode=2c_.0225 Length=9.256347 Units=m
New Line.LINECmpd_3 Bus1=257 Bus2=399 phases=3 Linecode=2c_.0225_UA Length=7.66249 Units=m
New Line.LINECmpd_4 Bus1=209 Bus2=726 phases=3 Linecode=2c_.0225_UA Length=17.057699 Units=m
New Line.LINECmpd_5 Bus1=547 Bus2=827 phases=3 Linecode=2c_.0225_UA Length=15.47829 Units=m
New Line.LINECmpd_6 Bus1=399 Bus2=729 phases=3 Linecode=2c_.0225_UA Length=11.224506 Units=m
New Line.LINECmpd_7 Bus1=302 Bus2=886 phases=3 Linecode=2c_.0225 Length=20.046599 Units=m
New Line.LINECmpd_8 Bus1=60 Bus2=155 phases=3 Linecode=2c_.0225 Length=24.92254 Units=m
New Line.LINECmpd_9 Bus1=499 Bus2=842 phases=3 Linecode=2c_.0225_UA Length=19.38959 Units=m
New Line.LINECmpd_10 Bus1=579 Bus2=852 phases=3 Linecode=.0225_UA Length=12.7645 Units=m
New Line.LINECmpd_11 Bus1=559 Bus2=841 phases=3 Linecode=2c_.0225_UA Length=13.77394 Units=m
New Line.LINECmpd_12 Bus1=194 Bus2=453 phases=3 Linecode=2c_.0225 Length=23.131629 Units=m
New Line.LINECmpd_13 Bus1=128 Bus2=587 phases=3 Linecode=2c_.0225 Length=19.214157 Units=m
New Line.LINECmpd_14 Bus1=257 Bus2=760 phases=3 Linecode=25_SAC_PSC Length=10.040226 Units=m
New Line.LINECmpd_15 Bus1=180 Bus2=209 phases=3 Linecode=2c_.0225_UA Length=2.10953 Units=m
New Line.LINECmpd_16 Bus1=302 Bus2=378 phases=3 Linecode=4c_.2 Length=27.9809 Units=m
New Line.LINECmpd_17 Bus1=219 Bus2=670 phases=3 Linecode=2c_.0225_UA Length=14.405243 Units=m
New Line.LINECmpd_18 Bus1=842 Bus2=948 phases=3 Linecode=2c_.0225_UA Length=10.321402 Units=m
New Line.LINECmpd_19 Bus1=837 Bus2=964 phases=3 Linecode=2c_.0225 Length=13.7655 Units=m
New Line.LINECmpd_20 Bus1=58 Bus2=194 phases=3 Linecode=4c_.2 Length=44.528994 Units=m
New Line.LINECmpd_21 Bus1=124 Bus2=337 phases=3 Linecode=2c_.0225 Length=21.74201 Units=m
New Line.LINECmpd_22 Bus1=855 Bus2=953 phases=3 Linecode=2c_.0225_UA Length=7.559722 Units=m
New Line.LINECmpd_23 Bus1=288 Bus2=808 phases=3 Linecode=2c_.0225 Length=22.44326 Units=m
New Line.LINECmpd_24 Bus1=34 Bus2=58 phases=3 Linecode=4c_.2 Length=23.53754 Units=m
New Line.LINECmpd_25 Bus1=236 Bus2=527 phases=3 Linecode=4c_.2 Length=39.27665 Units=m
New Line.LINECmpd_26 Bus1=587 Bus2=897 phases=3 Linecode=2c_.0225 Length=11.252327 Units=m
New Line.LINECmpd_27 Bus1=453 Bus2=677 phases=3 Linecode=2c_.0225 Length=13.29271 Units=m
New Line.LINECmpd_28 Bus1=477 Bus2=799 phases=3 Linecode=2c_.0225_UA Length=14.90236 Units=m
New Line.LINECmpd_29 Bus1=128 Bus2=157 phases=3 Linecode=4c_.2 Length=26.3385 Units=m
New Line.LINECmpd_30 Bus1=480 Bus2=855 phases=3 Linecode=2c_.0225_UA Length=21.64073 Units=m
New Line.LINECmpd_31 Bus1=425 Bus2=477 phases=3 Linecode=2c_.0225_UA Length=2.01094 Units=m
New Line.LINECmpd_32 Bus1=180 Bus2=219 phases=3 Linecode=2c_.0225_UA Length=4.12573 Units=m
New Line.LINECmpd_33 Bus1=157 Bus2=288 phases=3 Linecode=4c_.2 Length=34.33396 Units=m
New Line.LINECmpd_34 Bus1=378 Bus2=480 phases=3 Linecode=4c_.2 Length=33.3831 Units=m
New Line.LINECmpd_35 Bus1=836 Bus2=976 phases=3 Linecode=2c_.0225_UA Length=13.922863 Units=m
New Line.LINECmpd_36 Bus1=760 Bus2=882 phases=3 Linecode=25_SAC_PSC Length=6.47096 Units=m
New Line.LINECmpd_37 Bus1=77 Bus2=124 phases=3 Linecode=4c_.2 Length=32.0478 Units=m
New Line.LINECmpd_38 Bus1=155 Bus2=184 phases=3 Linecode=2c_.0225 Length=8.41616 Units=m
New Line.LINECmpd_39 Bus1=194 Bus2=236 phases=3 Linecode=4c_.2 Length=35.6905 Units=m
New Line.LINECmpd_40 Bus1=236 Bus2=257 phases=3 Linecode=25_SAC_PSC Length=13.6042 Units=m
New Line.LINECmpd_41 Bus1=95 Bus2=111 phases=3 Linecode=2c_.0225_UA Length=11.0319 Units=m
New Line.LINECmpd_42 Bus1=425 Bus2=478 phases=3 Linecode=2c_.0225_UA Length=2.50247 Units=m
New Line.LINECmpd_43 Bus1=478 Bus2=516 phases=3 Linecode=2c_.0225_UA Length=9.6891 Units=m
New Line.LINECmpd_44 Bus1=378 Bus2=425 phases=3 Linecode=2c_.0225_UA Length=12.54926 Units=m
New Line.LINECmpd_45 Bus1=35 Bus2=40 phases=3 Linecode=2c_.0225_UA Length=8.2932 Units=m
New Line.LINECmpd_46 Bus1=89 Bus2=112 phases=3 Linecode=2c_.0225_UA Length=10.0458 Units=m
New Line.LINECmpd_47 Bus1=60 Bus2=77 phases=3 Linecode=4c_.2 Length=30.213 Units=m
New Line.LINECmpd_48 Bus1=82 Bus2=95 phases=3 Linecode=2c_.0225_UA Length=2.60132 Units=m
New Line.LINECmpd_49 Bus1=157 Bus2=180 phases=3 Linecode=2c_.0225_UA Length=13.52675 Units=m
New Line.LINECmpd_50 Bus1=538 Bus2=579 phases=3 Linecode=.0225_UA Length=1.17876 Units=m
New Line.LINECmpd_51 Bus1=337 Bus2=368 phases=3 Linecode=2c_.0225 Length=6.7167 Units=m
